<?xml version="1.0" encoding="UTF-8"?>

<!-- generated on 2021-10-05 11:26:33 by Eclipse SUMO netedit Version 1.10.0
<configuration xmlns:xsi="http://www.w3.org/2001/XMLSchema-instance" xsi:noNamespaceSchemaLocation="http://sumo.dlr.de/xsd/netconvertConfiguration.xsd">

    <output>
        <output-file value="C:\Users\Marcus\Desktop\Hauptordner\Studium\Masterstudium\3.%20Semester\Projekt_Sim-Opt\quickstart.net.xml"/>
    </output>

    <processing>
        <offset.disable-normalization value="true"/>
    </processing>

    <junctions>
        <no-turnarounds value="true"/>
    </junctions>

    <netedit>
        <route-files value="C:\Users\Marcus\Desktop\Hauptordner\Studium\Masterstudium\3.%20Semester\Projekt_Sim-Opt\quickstart.rou.xml"/>
    </netedit>

    <report>
        <aggregate-warnings value="5"/>
    </report>

</configuration>
-->

<routes xmlns:xsi="http://www.w3.org/2001/XMLSchema-instance" xsi:noNamespaceSchemaLocation="http://sumo.dlr.de/xsd/routes_file.xsd">
    <vType id="CarA" maxSpeed="50.00" color="red" accel="3.0" decel="6.0"/>
    <vType id="CarB" length="7.50" maxSpeed="50.00" color="green" accel="2.0" decel="6.0"/>
    <vType id="CarC" maxSpeed="40.00" color="blue" accel="1.0" decel="5.0"/>
    <vType id="CarD" length="7.50" maxSpeed="30.00" color="yellow" accel="1.0" decel="5.0"/>
    <route edges="D2 L2 L12 L10 L7 D7" color="yellow" id="route01"/>
    <route edges="D2 L2 L12 L15 L18 L5 D5" color="yellow" id="route02"/>
    <route edges="D2 L2 L12 L15 L13 L3 D3" color="yellow" id="route03"/>
    <route edges="D4 L4 L14 L18 L5 D5" color="yellow" id="route04"/>
    <route edges="D4 L4 L14 L16 L10 L7 D7" color="yellow" id="route05"/>
    <route edges="D4 L4 L14 L16 L11 L1 D1" color="yellow" id="route06"/>
    <route edges="D6 L6 L17 L13 L3 D3" color="yellow" id="route07"/>
    <route edges="D6 L6 L17 L16 L11 L1 D1" color="yellow" id="route08"/>
    <route edges="D6 L6 L17 L16 L10 L7 D7" color="yellow" id="route09"/>
    <route edges="D8 L8 L9 L11 L1 D1" color="yellow" id="route10"/>
    <route edges="D8 L8 L9 L15 L13 L3 D3" color="yellow" id="route11"/>
    <route edges="D8 L8 L9 L15 L18 L5 D5" color="yellow" id="route12"/>
    <flow id="flowA01" type="CarA" begin="54000.00" route="route01" end="54900.00" period="30.00"/>
    <flow id="flowB01" type="CarB" begin="54000.00" route="route01" end="54900.00" period="30.00"/>
    <flow id="flowC01" type="CarC" begin="54000.00" route="route01" end="54900.00" period="30.00"/>
    <flow id="flowD01" type="CarD" begin="54000.00" route="route01" end="54900.00" period="30.00"/>
</routes>
