<?xml version="1.0" encoding="UTF-8"?>

<!-- generated on 2021-10-19 14:03:59 by Eclipse SUMO netedit Version 1.10.0
<configuration xmlns:xsi="http://www.w3.org/2001/XMLSchema-instance" xsi:noNamespaceSchemaLocation="http://sumo.dlr.de/xsd/netconvertConfiguration.xsd">

    <input>
        <sumo-net-file value="C:\Users\Marcus\Desktop\Hauptordner\Studium\Masterstudium\3.%20Semester\Projekt_Sim-Opt\Traffic_Simulation\SingleCrossway\circularControlNet.net.xml"/>
    </input>

    <output>
        <output-file value="C:\Users\Marcus\Desktop\Hauptordner\Studium\Masterstudium\3.%20Semester\Projekt_Sim-Opt\Traffic_Simulation\SingleCrossway\circularControlNet.net.xml"/>
    </output>

    <processing>
        <geometry.min-radius.fix.railways value="false"/>
        <geometry.max-grade.fix value="false"/>
        <offset.disable-normalization value="true"/>
        <lefthand value="false"/>
    </processing>

    <junctions>
        <no-turnarounds value="true"/>
        <junctions.corner-detail value="5"/>
        <junctions.limit-turn-speed value="5.5"/>
        <rectangular-lane-cut value="false"/>
    </junctions>

    <pedestrian>
        <walkingareas value="false"/>
    </pedestrian>

    <report>
        <aggregate-warnings value="5"/>
    </report>

</configuration>
-->

<net version="1.9" junctionCornerDetail="5" limitTurnSpeed="5.50" xmlns:xsi="http://www.w3.org/2001/XMLSchema-instance" xsi:noNamespaceSchemaLocation="http://sumo.dlr.de/xsd/net_file.xsd">

    <location netOffset="0.00,0.00" convBoundary="-100.00,-100.00,100.00,100.00" origBoundary="-10000000000.00,-10000000000.00,10000000000.00,10000000000.00" projParameter="!"/>

    <edge id=":m_0" function="internal">
        <lane id=":m_0_0" index="0" speed="6.51" length="9.03" shape="-1.60,7.20 -1.95,4.75 -3.00,3.00 -4.75,1.95 -7.20,1.60"/>
    </edge>
    <edge id=":m_1" function="internal">
        <lane id=":m_1_0" index="0" speed="13.89" length="14.40" shape="-1.60,7.20 -1.60,-7.20"/>
    </edge>
    <edge id=":m_2" function="internal">
        <lane id=":m_2_0" index="0" speed="8.00" length="5.93" shape="-1.60,7.20 -1.05,3.35 -0.00,1.60"/>
    </edge>
    <edge id=":m_12" function="internal">
        <lane id=":m_12_0" index="0" speed="8.00" length="8.26" shape="-0.00,1.60 0.60,0.60 3.35,-1.05 7.20,-1.60"/>
    </edge>
    <edge id=":m_3" function="internal">
        <lane id=":m_3_0" index="0" speed="6.51" length="9.03" shape="7.20,1.60 4.75,1.95 3.00,3.00 1.95,4.75 1.60,7.20"/>
    </edge>
    <edge id=":m_4" function="internal">
        <lane id=":m_4_0" index="0" speed="13.89" length="14.40" shape="7.20,1.60 -7.20,1.60"/>
    </edge>
    <edge id=":m_5" function="internal">
        <lane id=":m_5_0" index="0" speed="8.00" length="5.93" shape="7.20,1.60 3.35,1.05 1.60,0.00"/>
    </edge>
    <edge id=":m_13" function="internal">
        <lane id=":m_13_0" index="0" speed="8.00" length="8.26" shape="1.60,0.00 0.60,-0.60 -1.05,-3.35 -1.60,-7.20"/>
    </edge>
    <edge id=":m_6" function="internal">
        <lane id=":m_6_0" index="0" speed="6.51" length="9.03" shape="1.60,-7.20 1.95,-4.75 3.00,-3.00 4.75,-1.95 7.20,-1.60"/>
    </edge>
    <edge id=":m_7" function="internal">
        <lane id=":m_7_0" index="0" speed="13.89" length="14.40" shape="1.60,-7.20 1.60,7.20"/>
    </edge>
    <edge id=":m_8" function="internal">
        <lane id=":m_8_0" index="0" speed="8.00" length="5.93" shape="1.60,-7.20 1.05,-3.35 0.00,-1.60"/>
    </edge>
    <edge id=":m_14" function="internal">
        <lane id=":m_14_0" index="0" speed="8.00" length="8.26" shape="0.00,-1.60 -0.60,-0.60 -3.35,1.05 -7.20,1.60"/>
    </edge>
    <edge id=":m_9" function="internal">
        <lane id=":m_9_0" index="0" speed="6.51" length="9.03" shape="-7.20,-1.60 -4.75,-1.95 -3.00,-3.00 -1.95,-4.75 -1.60,-7.20"/>
    </edge>
    <edge id=":m_10" function="internal">
        <lane id=":m_10_0" index="0" speed="13.89" length="14.40" shape="-7.20,-1.60 7.20,-1.60"/>
    </edge>
    <edge id=":m_11" function="internal">
        <lane id=":m_11_0" index="0" speed="8.00" length="5.93" shape="-7.20,-1.60 -3.35,-1.05 -1.60,-0.00"/>
    </edge>
    <edge id=":m_15" function="internal">
        <lane id=":m_15_0" index="0" speed="8.00" length="8.26" shape="-1.60,-0.00 -0.60,0.60 1.05,3.35 1.60,7.20"/>
    </edge>

    <edge id="em" from="e" to="m" priority="-1">
        <lane id="em_0" index="0" speed="13.89" length="92.80" shape="100.00,1.60 7.20,1.60"/>
    </edge>
    <edge id="me" from="m" to="e" priority="-1">
        <lane id="me_0" index="0" speed="13.89" length="92.80" shape="7.20,-1.60 100.00,-1.60"/>
    </edge>
    <edge id="mn" from="m" to="n" priority="-1">
        <lane id="mn_0" index="0" speed="13.89" length="92.80" shape="1.60,7.20 1.60,100.00"/>
    </edge>
    <edge id="ms" from="m" to="s" priority="-1">
        <lane id="ms_0" index="0" speed="13.89" length="92.80" shape="-1.60,-7.20 -1.60,-100.00"/>
    </edge>
    <edge id="mw" from="m" to="w" priority="-1">
        <lane id="mw_0" index="0" speed="13.89" length="92.80" shape="-7.20,1.60 -100.00,1.60"/>
    </edge>
    <edge id="nm" from="n" to="m" priority="-1">
        <lane id="nm_0" index="0" speed="13.89" length="92.80" shape="-1.60,100.00 -1.60,7.20"/>
    </edge>
    <edge id="sm" from="s" to="m" priority="-1">
        <lane id="sm_0" index="0" speed="13.89" length="92.80" shape="1.60,-100.00 1.60,-7.20"/>
    </edge>
    <edge id="wm" from="w" to="m" priority="-1">
        <lane id="wm_0" index="0" speed="13.89" length="92.80" shape="-100.00,-1.60 -7.20,-1.60"/>
    </edge>

    <tlLogic id="m" type="static" programID="0" offset="0">
        <phase duration="42" state="GGgrrrGGgrrr" name="1" next="1"/>
        <phase duration="3"  state="yyyrrryyyrrr" name="2" next="2"/>
        <phase duration="42" state="rrrGGgrrrGGg" name="3" next="3"/>
        <phase duration="3"  state="rrryyyrrryyy" name="4" next="0"/>
    </tlLogic>

    <junction id="e" type="dead_end" x="100.00" y="0.00" incLanes="me_0" intLanes="" shape="100.00,0.00 100.00,-3.20 100.00,0.00"/>
    <junction id="m" type="traffic_light" x="0.00" y="0.00" incLanes="nm_0 em_0 sm_0 wm_0" intLanes=":m_0_0 :m_1_0 :m_12_0 :m_3_0 :m_4_0 :m_13_0 :m_6_0 :m_7_0 :m_14_0 :m_9_0 :m_10_0 :m_15_0" shape="-3.20,7.20 3.20,7.20 3.64,4.98 4.20,4.20 4.98,3.64 5.98,3.31 7.20,3.20 7.20,-3.20 4.98,-3.64 4.20,-4.20 3.64,-4.98 3.31,-5.98 3.20,-7.20 -3.20,-7.20 -3.64,-4.98 -4.20,-4.20 -4.98,-3.64 -5.98,-3.31 -7.20,-3.20 -7.20,3.20 -4.98,3.64 -4.20,4.20 -3.64,4.98 -3.31,5.98">
        <request index="0"  response="000000000000" foes="000100010000" cont="0"/>
        <request index="1"  response="100000100000" foes="111100110000" cont="0"/>
        <request index="2"  response="100011100000" foes="110011110000" cont="1"/>
        <request index="3"  response="000010000000" foes="100010000000" cont="0"/>
        <request index="4"  response="000110000111" foes="100110000111" cont="0"/>
        <request index="5"  response="011110000110" foes="011110000110" cont="1"/>
        <request index="6"  response="000000000000" foes="010000000100" cont="0"/>
        <request index="7"  response="100000100000" foes="110000111100" cont="0"/>
        <request index="8"  response="100000100011" foes="110000110011" cont="1"/>
        <request index="9"  response="000000000010" foes="000000100010" cont="0"/>
        <request index="10" response="000111000110" foes="000111100110" cont="0"/>
        <request index="11" response="000110011110" foes="000110011110" cont="1"/>
    </junction>
    <junction id="n" type="dead_end" x="0.00" y="100.00" incLanes="mn_0" intLanes="" shape="0.00,100.00 3.20,100.00 0.00,100.00"/>
    <junction id="s" type="dead_end" x="0.00" y="-100.00" incLanes="ms_0" intLanes="" shape="0.00,-100.00 -3.20,-100.00 0.00,-100.00"/>
    <junction id="w" type="dead_end" x="-100.00" y="0.00" incLanes="mw_0" intLanes="" shape="-100.00,0.00 -100.00,3.20 -100.00,0.00"/>

    <junction id=":m_12_0" type="internal" x="-0.00" y="1.60" incLanes=":m_2_0 sm_0" intLanes=":m_4_0 :m_5_0 :m_6_0 :m_7_0 :m_10_0 :m_11_0"/>
    <junction id=":m_13_0" type="internal" x="1.60" y="0.00" incLanes=":m_5_0 wm_0" intLanes=":m_1_0 :m_2_0 :m_7_0 :m_8_0 :m_9_0 :m_10_0"/>
    <junction id=":m_14_0" type="internal" x="0.00" y="-1.60" incLanes=":m_8_0 nm_0" intLanes=":m_0_0 :m_1_0 :m_4_0 :m_5_0 :m_10_0 :m_11_0"/>
    <junction id=":m_15_0" type="internal" x="-1.60" y="-0.00" incLanes=":m_11_0 em_0" intLanes=":m_1_0 :m_2_0 :m_3_0 :m_4_0 :m_7_0 :m_8_0"/>

    <connection from="em" to="mn" fromLane="0" toLane="0" via=":m_3_0" tl="m" linkIndex="3" dir="r" state="o"/>
    <connection from="em" to="mw" fromLane="0" toLane="0" via=":m_4_0" tl="m" linkIndex="4" dir="s" state="o"/>
    <connection from="em" to="ms" fromLane="0" toLane="0" via=":m_5_0" tl="m" linkIndex="5" dir="l" state="o"/>
    <connection from="nm" to="mw" fromLane="0" toLane="0" via=":m_0_0" tl="m" linkIndex="0" dir="r" state="O"/>
    <connection from="nm" to="ms" fromLane="0" toLane="0" via=":m_1_0" tl="m" linkIndex="1" dir="s" state="O"/>
    <connection from="nm" to="me" fromLane="0" toLane="0" via=":m_2_0" tl="m" linkIndex="2" dir="l" state="o"/>
    <connection from="sm" to="me" fromLane="0" toLane="0" via=":m_6_0" tl="m" linkIndex="6" dir="r" state="O"/>
    <connection from="sm" to="mn" fromLane="0" toLane="0" via=":m_7_0" tl="m" linkIndex="7" dir="s" state="O"/>
    <connection from="sm" to="mw" fromLane="0" toLane="0" via=":m_8_0" tl="m" linkIndex="8" dir="l" state="o"/>
    <connection from="wm" to="ms" fromLane="0" toLane="0" via=":m_9_0" tl="m" linkIndex="9" dir="r" state="o"/>
    <connection from="wm" to="me" fromLane="0" toLane="0" via=":m_10_0" tl="m" linkIndex="10" dir="s" state="o"/>
    <connection from="wm" to="mn" fromLane="0" toLane="0" via=":m_11_0" tl="m" linkIndex="11" dir="l" state="o"/>

    <connection from=":m_0" to="mw" fromLane="0" toLane="0" dir="r" state="M"/>
    <connection from=":m_1" to="ms" fromLane="0" toLane="0" dir="s" state="M"/>
    <connection from=":m_2" to="me" fromLane="0" toLane="0" via=":m_12_0" dir="l" state="m"/>
    <connection from=":m_12" to="me" fromLane="0" toLane="0" dir="l" state="M"/>
    <connection from=":m_3" to="mn" fromLane="0" toLane="0" dir="r" state="M"/>
    <connection from=":m_4" to="mw" fromLane="0" toLane="0" dir="s" state="M"/>
    <connection from=":m_5" to="ms" fromLane="0" toLane="0" via=":m_13_0" dir="l" state="m"/>
    <connection from=":m_13" to="ms" fromLane="0" toLane="0" dir="l" state="M"/>
    <connection from=":m_6" to="me" fromLane="0" toLane="0" dir="r" state="M"/>
    <connection from=":m_7" to="mn" fromLane="0" toLane="0" dir="s" state="M"/>
    <connection from=":m_8" to="mw" fromLane="0" toLane="0" via=":m_14_0" dir="l" state="m"/>
    <connection from=":m_14" to="mw" fromLane="0" toLane="0" dir="l" state="M"/>
    <connection from=":m_9" to="ms" fromLane="0" toLane="0" dir="r" state="M"/>
    <connection from=":m_10" to="me" fromLane="0" toLane="0" dir="s" state="M"/>
    <connection from=":m_11" to="mn" fromLane="0" toLane="0" via=":m_15_0" dir="l" state="m"/>
    <connection from=":m_15" to="mn" fromLane="0" toLane="0" dir="l" state="M"/>

</net>
