<net xmlns:xsi="http://www.w3.org/2001/XMLSchema-instance" junctionCornerDetail="5" limitTurnSpeed="5.50" version="1.9" xsi:noNamespaceSchemaLocation="http://sumo.dlr.de/xsd/net_file.xsd">

    <location convBoundary="-100.00,-100.00,200.00,100.00" netOffset="0.00,0.00" origBoundary="-10000000000.00,-10000000000.00,10000000000.00,10000000000.00" projParameter="!" />

    <edge function="internal" id=":a2L_0">
        <lane id=":a2L_0_0" index="0" length="8.00" shape="-41.00,1.60 -49.00,1.60" speed="13.89" />
    </edge>
    <edge function="internal" id=":a2L_1">
        <lane id=":a2L_1_0" index="0" length="8.40" shape="-49.00,-1.60 -46.54,-2.10 -45.00,-3.20 -43.46,-4.30 -41.00,-4.80" speed="13.89" />
        <lane id=":a2L_1_1" index="1" length="8.40" shape="-49.00,-1.60 -41.00,-1.60" speed="13.89" />
    </edge>
    <edge function="internal" id=":b1L_0">
        <lane id=":b1L_0_0" index="0" length="8.40" shape="-1.60,49.00 -2.10,46.54 -3.20,45.00 -4.30,43.46 -4.80,41.00" speed="13.89" />
        <lane id=":b1L_0_1" index="1" length="8.40" shape="-1.60,49.00 -1.60,41.00" speed="13.89" />
    </edge>
    <edge function="internal" id=":b1L_2">
        <lane id=":b1L_2_0" index="0" length="8.00" shape="1.60,41.00 1.60,49.00" speed="13.89" />
    </edge>
    <edge function="internal" id=":b2_0">
        <lane id=":b2_0_0" index="0" length="11.73" shape="-4.80,10.40 -5.15,6.55 -6.20,3.80 -7.95,2.15 -10.40,1.60" speed="7.33" />
    </edge>
    <edge function="internal" id=":b2_1">
        <lane id=":b2_1_0" index="0" length="21.09" shape="-4.80,10.40 -4.30,3.63 -3.20,-1.88 -2.10,-6.45 -1.60,-10.40" speed="13.89" />
    </edge>
    <edge function="internal" id=":b2_2">
        <lane id=":b2_2_0" index="0" length="10.03" shape="-1.60,10.40 -0.85,5.15 1.40,1.40 1.70,1.22" speed="9.26" />
    </edge>
    <edge function="internal" id=":b2_12">
        <lane id=":b2_12_0" index="0" length="9.33" shape="1.70,1.22 5.15,-0.85 10.40,-1.60" speed="9.26" />
    </edge>
    <edge function="internal" id=":b2_3">
        <lane id=":b2_3_0" index="0" length="11.73" shape="10.40,4.80 6.55,5.15 3.80,6.20 2.15,7.95 1.60,10.40" speed="7.33" />
    </edge>
    <edge function="internal" id=":b2_4">
        <lane id=":b2_4_0" index="0" length="21.09" shape="10.40,4.80 3.63,4.30 -1.88,3.20 -6.45,2.10 -10.40,1.60" speed="13.89" />
    </edge>
    <edge function="internal" id=":b2_5">
        <lane id=":b2_5_0" index="0" length="11.78" shape="10.40,1.60 5.15,0.85 1.40,-1.40 0.32,-3.20" speed="9.26" />
    </edge>
    <edge function="internal" id=":b2_13">
        <lane id=":b2_13_0" index="0" length="7.58" shape="0.32,-3.20 -0.85,-5.15 -1.60,-10.40" speed="9.26" />
    </edge>
    <edge function="internal" id=":b2_6">
        <lane id=":b2_6_0" index="0" length="9.03" shape="4.80,-10.40 5.15,-7.95 6.20,-6.20 7.95,-5.15 10.40,-4.80" speed="6.51" />
    </edge>
    <edge function="internal" id=":b2_7">
        <lane id=":b2_7_0" index="0" length="21.09" shape="4.80,-10.40 4.30,-3.63 3.20,1.88 2.10,6.45 1.60,10.40" speed="13.89" />
    </edge>
    <edge function="internal" id=":b2_8">
        <lane id=":b2_8_0" index="0" length="10.03" shape="1.60,-10.40 0.85,-5.15 -1.40,-1.40 -1.70,-1.22" speed="9.26" />
    </edge>
    <edge function="internal" id=":b2_14">
        <lane id=":b2_14_0" index="0" length="9.33" shape="-1.70,-1.22 -5.15,0.85 -10.40,1.60" speed="9.26" />
    </edge>
    <edge function="internal" id=":b2_9">
        <lane id=":b2_9_0" index="0" length="11.73" shape="-10.40,-4.80 -6.55,-5.15 -3.80,-6.20 -2.15,-7.95 -1.60,-10.40" speed="7.33" />
    </edge>
    <edge function="internal" id=":b2_10">
        <lane id=":b2_10_0" index="0" length="20.80" shape="-10.40,-4.80 10.40,-4.80" speed="13.89" />
    </edge>
    <edge function="internal" id=":b2_11">
        <lane id=":b2_11_0" index="0" length="10.03" shape="-10.40,-1.60 -5.15,-0.85 -1.40,1.40 -1.22,1.70" speed="9.26" />
    </edge>
    <edge function="internal" id=":b2_15">
        <lane id=":b2_15_0" index="0" length="9.33" shape="-1.22,1.70 0.85,5.15 1.60,10.40" speed="9.26" />
    </edge>
    <edge function="internal" id=":b3L_0">
        <lane id=":b3L_0_0" index="0" length="8.00" shape="-1.60,-41.00 -1.60,-49.00" speed="13.89" />
    </edge>
    <edge function="internal" id=":b3L_1">
        <lane id=":b3L_1_0" index="0" length="8.40" shape="1.60,-49.00 2.10,-46.54 3.20,-45.00 4.30,-43.46 4.80,-41.00" speed="13.89" />
        <lane id=":b3L_1_1" index="1" length="8.40" shape="1.60,-49.00 1.60,-41.00" speed="13.89" />
    </edge>
    <edge function="internal" id=":c1L_0">
        <lane id=":c1L_0_0" index="0" length="8.40" shape="98.40,49.00 97.90,46.54 96.80,45.00 95.70,43.46 95.20,41.00" speed="13.89" />
        <lane id=":c1L_0_1" index="1" length="8.40" shape="98.40,49.00 98.40,41.00" speed="13.89" />
    </edge>
    <edge function="internal" id=":c1L_2">
        <lane id=":c1L_2_0" index="0" length="8.00" shape="101.60,41.00 101.60,49.00" speed="13.89" />
    </edge>
    <edge function="internal" id=":c2_0">
        <lane id=":c2_0_0" index="0" length="9.03" shape="95.20,10.40 94.85,7.95 93.80,6.20 92.05,5.15 89.60,4.80" speed="6.51" />
    </edge>
    <edge function="internal" id=":c2_1">
        <lane id=":c2_1_0" index="0" length="21.09" shape="95.20,10.40 95.70,3.63 96.80,-1.88 97.90,-6.45 98.40,-10.40" speed="13.89" />
    </edge>
    <edge function="internal" id=":c2_2">
        <lane id=":c2_2_0" index="0" length="10.03" shape="98.40,10.40 99.15,5.15 101.40,1.40 101.70,1.22" speed="9.26" />
    </edge>
    <edge function="internal" id=":c2_12">
        <lane id=":c2_12_0" index="0" length="9.33" shape="101.70,1.22 105.15,-0.85 110.40,-1.60" speed="9.26" />
    </edge>
    <edge function="internal" id=":c2_3">
        <lane id=":c2_3_0" index="0" length="11.73" shape="110.40,4.80 106.55,5.15 103.80,6.20 102.15,7.95 101.60,10.40" speed="7.33" />
    </edge>
    <edge function="internal" id=":c2_4">
        <lane id=":c2_4_0" index="0" length="20.80" shape="110.40,4.80 89.60,4.80" speed="13.89" />
    </edge>
    <edge function="internal" id=":c2_5">
        <lane id=":c2_5_0" index="0" length="10.03" shape="110.40,1.60 105.15,0.85 101.40,-1.40 101.22,-1.70" speed="9.26" />
    </edge>
    <edge function="internal" id=":c2_13">
        <lane id=":c2_13_0" index="0" length="9.33" shape="101.22,-1.70 99.15,-5.15 98.40,-10.40" speed="9.26" />
    </edge>
    <edge function="internal" id=":c2_6">
        <lane id=":c2_6_0" index="0" length="11.73" shape="104.80,-10.40 105.15,-6.55 106.20,-3.80 107.95,-2.15 110.40,-1.60" speed="7.33" />
    </edge>
    <edge function="internal" id=":c2_7">
        <lane id=":c2_7_0" index="0" length="21.09" shape="104.80,-10.40 104.30,-3.63 103.20,1.88 102.10,6.45 101.60,10.40" speed="13.89" />
    </edge>
    <edge function="internal" id=":c2_8">
        <lane id=":c2_8_0" index="0" length="10.03" shape="101.60,-10.40 100.85,-5.15 98.60,-1.40 98.30,-1.22" speed="9.26" />
    </edge>
    <edge function="internal" id=":c2_14">
        <lane id=":c2_14_0" index="0" length="9.33" shape="98.30,-1.22 94.85,0.85 89.60,1.60" speed="9.26" />
    </edge>
    <edge function="internal" id=":c2_9">
        <lane id=":c2_9_0" index="0" length="11.73" shape="89.60,-4.80 93.45,-5.15 96.20,-6.20 97.85,-7.95 98.40,-10.40" speed="7.33" />
    </edge>
    <edge function="internal" id=":c2_10">
        <lane id=":c2_10_0" index="0" length="21.09" shape="89.60,-4.80 96.37,-4.30 101.88,-3.20 106.45,-2.10 110.40,-1.60" speed="13.89" />
    </edge>
    <edge function="internal" id=":c2_11">
        <lane id=":c2_11_0" index="0" length="11.78" shape="89.60,-1.60 94.85,-0.85 98.60,1.40 99.68,3.20" speed="9.26" />
    </edge>
    <edge function="internal" id=":c2_15">
        <lane id=":c2_15_0" index="0" length="7.58" shape="99.68,3.20 100.85,5.15 101.60,10.40" speed="9.26" />
    </edge>
    <edge function="internal" id=":c3L_0">
        <lane id=":c3L_0_0" index="0" length="8.00" shape="98.40,-41.00 98.40,-49.00" speed="13.89" />
    </edge>
    <edge function="internal" id=":c3L_1">
        <lane id=":c3L_1_0" index="0" length="8.40" shape="101.60,-49.00 102.10,-46.54 103.20,-45.00 104.30,-43.46 104.80,-41.00" speed="13.89" />
        <lane id=":c3L_1_1" index="1" length="8.40" shape="101.60,-49.00 101.60,-41.00" speed="13.89" />
    </edge>
    <edge function="internal" id=":gneJ8_0">
        <lane id=":gneJ8_0_0" index="0" length="8.40" shape="149.00,1.60 146.54,2.10 145.00,3.20 143.46,4.30 141.00,4.80" speed="13.89" />
        <lane id=":gneJ8_0_1" index="1" length="8.40" shape="149.00,1.60 141.00,1.60" speed="13.89" />
    </edge>
    <edge function="internal" id=":gneJ8_2">
        <lane id=":gneJ8_2_0" index="0" length="8.00" shape="141.00,-1.60 149.00,-1.60" speed="13.89" />
    </edge>

    <edge from="c2" id="-gneE0" priority="-1" to="c1L">
        <lane id="-gneE0_0" index="0" length="30.60" shape="101.60,10.40 101.60,41.00" speed="13.89" />
    </edge>
    <edge from="c1L" id="-gneE0.56" priority="-1" to="c1">
        <lane id="-gneE0.56_0" index="0" length="51.00" shape="101.60,49.00 101.60,100.00" speed="13.89" />
    </edge>
    <edge from="c2" id="-gneE1" priority="-1" to="c3L">
        <lane id="-gneE1_0" index="0" length="30.60" shape="98.40,-10.40 98.40,-41.00" speed="13.89" />
    </edge>
    <edge from="c3L" id="-gneE1.49" priority="-1" to="c3">
        <lane id="-gneE1.49_0" index="0" length="51.00" shape="98.40,-49.00 98.40,-100.00" speed="13.89" />
    </edge>
    <edge from="d2" id="-gneE2" priority="-1" to="gneJ8">
        <lane id="-gneE2_0" index="0" length="51.00" shape="200.00,1.60 149.00,1.60" speed="13.89" />
    </edge>
    <edge from="gneJ8" id="-gneE2.49" priority="-1" to="c2">
        <lane id="-gneE2.49_0" index="0" length="30.60" shape="141.00,4.80 110.40,4.80" speed="13.89" />
        <lane id="-gneE2.49_1" index="1" length="30.60" shape="141.00,1.60 110.40,1.60" speed="13.89" />
    </edge>
    <edge from="a2" id="a2b2" priority="-1" to="a2L">
        <lane id="a2b2_0" index="0" length="51.00" shape="-100.00,-1.60 -49.00,-1.60" speed="13.89" />
    </edge>
    <edge from="a2L" id="a2b2.43" priority="-1" to="b2">
        <lane id="a2b2.43_0" index="0" length="30.60" shape="-41.00,-4.80 -10.40,-4.80" speed="13.89" />
        <lane id="a2b2.43_1" index="1" length="30.60" shape="-41.00,-1.60 -10.40,-1.60" speed="13.89" />
    </edge>
    <edge from="b1" id="b1b2" priority="-1" to="b1L">
        <lane id="b1b2_0" index="0" length="51.00" shape="-1.60,100.00 -1.60,49.00" speed="13.89" />
    </edge>
    <edge from="b1L" id="b1b2.54" priority="-1" to="b2">
        <lane id="b1b2.54_0" index="0" length="30.60" shape="-4.80,41.00 -4.80,10.40" speed="13.89" />
        <lane id="b1b2.54_1" index="1" length="30.60" shape="-1.60,41.00 -1.60,10.40" speed="13.89" />
    </edge>
    <edge from="b2" id="b2a2" priority="-1" to="a2L">
        <lane id="b2a2_0" index="0" length="30.60" shape="-10.40,1.60 -41.00,1.60" speed="13.89" />
    </edge>
    <edge from="a2L" id="b2a2.56" priority="-1" to="a2">
        <lane id="b2a2.56_0" index="0" length="51.00" shape="-49.00,1.60 -100.00,1.60" speed="13.89" />
    </edge>
    <edge from="b2" id="b2b1" priority="-1" to="b1L">
        <lane id="b2b1_0" index="0" length="30.60" shape="1.60,10.40 1.60,41.00" speed="13.89" />
    </edge>
    <edge from="b1L" id="b2b1.45" priority="-1" to="b1">
        <lane id="b2b1.45_0" index="0" length="51.00" shape="1.60,49.00 1.60,100.00" speed="13.89" />
    </edge>
    <edge from="b2" id="b2b3" priority="-1" to="b3L">
        <lane id="b2b3_0" index="0" length="30.60" shape="-1.60,-10.40 -1.60,-41.00" speed="13.89" />
    </edge>
    <edge from="b3L" id="b2b3.50" priority="-1" to="b3">
        <lane id="b2b3.50_0" index="0" length="51.00" shape="-1.60,-49.00 -1.60,-100.00" speed="13.89" />
    </edge>
    <edge from="b3" id="b3b2" priority="-1" to="b3L">
        <lane id="b3b2_0" index="0" length="51.00" shape="1.60,-100.00 1.60,-49.00" speed="13.89" />
    </edge>
    <edge from="b3L" id="b3b2.49" priority="-1" to="b2">
        <lane id="b3b2.49_0" index="0" length="30.60" shape="4.80,-41.00 4.80,-10.40" speed="13.89" />
        <lane id="b3b2.49_1" index="1" length="30.60" shape="1.60,-41.00 1.60,-10.40" speed="13.89" />
    </edge>
    <edge from="c2" id="em" priority="-1" to="b2">
        <lane id="em_0" index="0" length="79.20" shape="89.60,4.80 10.40,4.80" speed="13.89" />
        <lane id="em_1" index="1" length="79.20" shape="89.60,1.60 10.40,1.60" speed="13.89" />
    </edge>
    <edge from="c1" id="gneE0" priority="-1" to="c1L">
        <lane id="gneE0_0" index="0" length="51.00" shape="98.40,100.00 98.40,49.00" speed="13.89" />
    </edge>
    <edge from="c1L" id="gneE0.43" priority="-1" to="c2">
        <lane id="gneE0.43_0" index="0" length="30.60" shape="95.20,41.00 95.20,10.40" speed="13.89" />
        <lane id="gneE0.43_1" index="1" length="30.60" shape="98.40,41.00 98.40,10.40" speed="13.89" />
    </edge>
    <edge from="c3" id="gneE1" priority="-1" to="c3L">
        <lane id="gneE1_0" index="0" length="51.00" shape="101.60,-100.00 101.60,-49.00" speed="13.89" />
    </edge>
    <edge from="c3L" id="gneE1.50" priority="-1" to="c2">
        <lane id="gneE1.50_0" index="0" length="30.60" shape="104.80,-41.00 104.80,-10.40" speed="13.89" />
        <lane id="gneE1.50_1" index="1" length="30.60" shape="101.60,-41.00 101.60,-10.40" speed="13.89" />
    </edge>
    <edge from="c2" id="gneE2" priority="-1" to="gneJ8">
        <lane id="gneE2_0" index="0" length="30.60" shape="110.40,-1.60 141.00,-1.60" speed="13.89" />
    </edge>
    <edge from="gneJ8" id="gneE2.50" priority="-1" to="d2">
        <lane id="gneE2.50_0" index="0" length="51.00" shape="149.00,-1.60 200.00,-1.60" speed="13.89" />
    </edge>
    <edge from="b2" id="me" priority="-1" to="c2">
        <lane id="me_0" index="0" length="79.20" shape="10.40,-4.80 89.60,-4.80" speed="13.89" />
        <lane id="me_1" index="1" length="79.20" shape="10.40,-1.60 89.60,-1.60" speed="13.89" />
    </edge>

    <tlLogic id="c2" offset="0" programID="0" type="static">
        <phase duration="80" state="GGgrrrGGgrrr" />
        <phase duration="3" state="yygrrryygrrr" />
        <phase duration="6" state="rrGrrrrrGrrr" />
        <phase duration="3" state="rryrrrrryrrr" />
        <phase duration="80" state="rrrGGgrrrGGg" />
        <phase duration="3" state="rrryygrrryyg" />
        <phase duration="6" state="rrrrrGrrrrrG" />
        <phase duration="3" state="rrrrryrrrrry" />
    </tlLogic>
    <tlLogic id="m" offset="0" programID="0" type="static">
        <phase duration="80" state="GGgrrrGGgrrr" />
        <phase duration="3" state="yygrrryygrrr" />
        <phase duration="6" state="rrGrrrrrGrrr" />
        <phase duration="3" state="rryrrrrryrrr" />
        <phase duration="80" state="rrrGGgrrrGGg" />
        <phase duration="3" state="rrryygrrryyg" />
        <phase duration="6" state="rrrrrGrrrrrG" />
        <phase duration="3" state="rrrrryrrrrry" />
    </tlLogic>

    <junction id="a2" incLanes="b2a2.56_0" intLanes="" shape="-100.00,0.00 -100.00,3.20 -100.00,0.00" type="dead_end" x="-100.00" y="0.00" />
    <junction id="a2L" incLanes="b2a2_0 a2b2_0" intLanes=":a2L_0_0 :a2L_1_0 :a2L_1_1" shape="-41.00,3.20 -41.00,-6.40 -44.03,-5.57 -45.97,-4.03 -47.21,-3.44 -49.00,-3.20 -49.00,3.20" type="priority" x="-45.00" y="0.00">
        <request cont="0" foes="000" index="0" response="000" />
        <request cont="0" foes="000" index="1" response="000" />
        <request cont="0" foes="000" index="2" response="000" />
    </junction>
    <junction id="b1" incLanes="b2b1.45_0" intLanes="" shape="0.00,100.00 3.20,100.00 0.00,100.00" type="dead_end" x="0.00" y="100.00" />
    <junction id="b1L" incLanes="b1b2_0 b2b1_0" intLanes=":b1L_0_0 :b1L_0_1 :b1L_2_0" shape="-3.20,49.00 3.20,49.00 3.20,41.00 -6.40,41.00 -5.57,44.03 -4.03,45.97 -3.44,47.21" type="priority" x="0.00" y="45.00">
        <request cont="0" foes="000" index="0" response="000" />
        <request cont="0" foes="000" index="1" response="000" />
        <request cont="0" foes="000" index="2" response="000" />
    </junction>
    <junction id="b2" incLanes="b1b2.54_0 b1b2.54_1 em_0 em_1 b3b2.49_0 b3b2.49_1 a2b2.43_0 a2b2.43_1" intLanes=":b2_0_0 :b2_1_0 :b2_12_0 :b2_3_0 :b2_4_0 :b2_13_0 :b2_6_0 :b2_7_0 :b2_14_0 :b2_9_0 :b2_10_0 :b2_15_0" shape="-6.40,10.40 3.20,10.40 4.00,8.18 5.00,7.40 6.40,6.84 8.20,6.51 10.40,6.40 10.40,-6.40 8.18,-6.84 7.40,-7.40 6.84,-8.18 6.51,-9.18 6.40,-10.40 -3.20,-10.40 -4.00,-8.18 -5.00,-7.40 -6.40,-6.84 -8.20,-6.51 -10.40,-6.40 -10.40,3.20 -8.18,4.00 -7.40,5.00 -6.84,6.40 -6.51,8.20" type="traffic_light" x="0.00" y="0.00">
        <request cont="0" foes="000100010000" index="0" response="000000000000" />
        <request cont="0" foes="111100110000" index="1" response="100000100000" />
        <request cont="1" foes="100010110000" index="2" response="100010100000" />
        <request cont="0" foes="100010000000" index="3" response="000010000000" />
        <request cont="0" foes="100110000111" index="4" response="000110000111" />
        <request cont="1" foes="011110000110" index="5" response="011110000110" />
        <request cont="0" foes="010000000000" index="6" response="000000000000" />
        <request cont="0" foes="110000111100" index="7" response="100000100000" />
        <request cont="1" foes="110000110011" index="8" response="100000100011" />
        <request cont="0" foes="000000100010" index="9" response="000000000010" />
        <request cont="0" foes="000111100010" index="10" response="000111000010" />
        <request cont="1" foes="000110011110" index="11" response="000110011110" />
    </junction>
    <junction id="b3" incLanes="b2b3.50_0" intLanes="" shape="0.00,-100.00 -3.20,-100.00 0.00,-100.00" type="dead_end" x="0.00" y="-100.00" />
    <junction id="b3L" incLanes="b2b3_0 b3b2_0" intLanes=":b3L_0_0 :b3L_1_0 :b3L_1_1" shape="-3.20,-41.00 6.40,-41.00 5.57,-44.03 4.03,-45.97 3.44,-47.21 3.20,-49.00 -3.20,-49.00" type="priority" x="0.00" y="-45.00">
        <request cont="0" foes="000" index="0" response="000" />
        <request cont="0" foes="000" index="1" response="000" />
        <request cont="0" foes="000" index="2" response="000" />
    </junction>
    <junction id="c1" incLanes="-gneE0.56_0" intLanes="" shape="100.00,100.00 103.20,100.00 100.00,100.00" type="dead_end" x="100.00" y="100.00" />
    <junction id="c1L" incLanes="gneE0_0 -gneE0_0" intLanes=":c1L_0_0 :c1L_0_1 :c1L_2_0" shape="96.80,49.00 103.20,49.00 103.20,41.00 93.60,41.00 94.43,44.03 95.97,45.97 96.56,47.21" type="priority" x="100.00" y="45.00">
        <request cont="0" foes="000" index="0" response="000" />
        <request cont="0" foes="000" index="1" response="000" />
        <request cont="0" foes="000" index="2" response="000" />
    </junction>
    <junction id="c2" incLanes="gneE0.43_0 gneE0.43_1 -gneE2.49_0 -gneE2.49_1 gneE1.50_0 gneE1.50_1 me_0 me_1" intLanes=":c2_0_0 :c2_1_0 :c2_12_0 :c2_3_0 :c2_4_0 :c2_13_0 :c2_6_0 :c2_7_0 :c2_14_0 :c2_9_0 :c2_10_0 :c2_15_0" shape="93.60,10.40 103.20,10.40 104.00,8.18 105.00,7.40 106.40,6.84 108.20,6.51 110.40,6.40 110.40,-3.20 108.18,-4.00 107.40,-5.00 106.84,-6.40 106.51,-8.20 106.40,-10.40 96.80,-10.40 96.00,-8.18 95.00,-7.40 93.60,-6.84 91.80,-6.51 89.60,-6.40 89.60,6.40 91.82,6.84 92.60,7.40 93.16,8.18 93.49,9.18" type="traffic_light" x="100.00" y="0.00">
        <request cont="0" foes="000000010000" index="0" response="000000000000" />
        <request cont="0" foes="111100110000" index="1" response="100000100000" />
        <request cont="1" foes="110011110000" index="2" response="100011100000" />
        <request cont="0" foes="100010000000" index="3" response="000010000000" />
        <request cont="0" foes="100010000111" index="4" response="000010000111" />
        <request cont="1" foes="011110000110" index="5" response="011110000110" />
        <request cont="0" foes="010000000100" index="6" response="000000000000" />
        <request cont="0" foes="110000111100" index="7" response="100000100000" />
        <request cont="1" foes="110000100010" index="8" response="100000100010" />
        <request cont="0" foes="000000100010" index="9" response="000000000010" />
        <request cont="0" foes="000111100110" index="10" response="000111000110" />
        <request cont="1" foes="000110011110" index="11" response="000110011110" />
    </junction>
    <junction id="c3" incLanes="-gneE1.49_0" intLanes="" shape="100.00,-100.00 96.80,-100.00 100.00,-100.00" type="dead_end" x="100.00" y="-100.00" />
    <junction id="c3L" incLanes="-gneE1_0 gneE1_0" intLanes=":c3L_0_0 :c3L_1_0 :c3L_1_1" shape="96.80,-41.00 106.40,-41.00 105.57,-44.03 104.03,-45.97 103.44,-47.21 103.20,-49.00 96.80,-49.00" type="priority" x="100.00" y="-45.00">
        <request cont="0" foes="000" index="0" response="000" />
        <request cont="0" foes="000" index="1" response="000" />
        <request cont="0" foes="000" index="2" response="000" />
    </junction>
    <junction id="d2" incLanes="gneE2.50_0" intLanes="" shape="200.00,0.00 200.00,-3.20 200.00,0.00" type="dead_end" x="200.00" y="0.00" />
    <junction id="gneJ8" incLanes="-gneE2_0 gneE2_0" intLanes=":gneJ8_0_0 :gneJ8_0_1 :gneJ8_2_0" shape="149.00,3.20 149.00,-3.20 141.00,-3.20 141.00,6.40 144.03,5.57 145.97,4.03 147.21,3.44" type="priority" x="145.00" y="0.00">
        <request cont="0" foes="000" index="0" response="000" />
        <request cont="0" foes="000" index="1" response="000" />
        <request cont="0" foes="000" index="2" response="000" />
    </junction>

    <junction id=":b2_12_0" incLanes=":b2_2_0 b3b2.49_0" intLanes=":b2_4_0 :b2_5_0 :b2_6_0 :b2_7_0 :b2_10_0 :b2_11_0" type="internal" x="1.70" y="1.22" />
    <junction id=":b2_13_0" incLanes=":b2_5_0 a2b2.43_0" intLanes=":b2_1_0 :b2_2_0 :b2_7_0 :b2_8_0 :b2_9_0 :b2_10_0" type="internal" x="0.32" y="-3.20" />
    <junction id=":b2_14_0" incLanes=":b2_8_0 b1b2.54_0" intLanes=":b2_0_0 :b2_1_0 :b2_4_0 :b2_5_0 :b2_10_0 :b2_11_0" type="internal" x="-1.70" y="-1.22" />
    <junction id=":b2_15_0" incLanes=":b2_11_0 em_0" intLanes=":b2_1_0 :b2_2_0 :b2_3_0 :b2_4_0 :b2_7_0 :b2_8_0" type="internal" x="-1.22" y="1.70" />
    <junction id=":c2_12_0" incLanes=":c2_2_0 gneE1.50_0" intLanes=":c2_4_0 :c2_5_0 :c2_6_0 :c2_7_0 :c2_10_0 :c2_11_0" type="internal" x="101.70" y="1.22" />
    <junction id=":c2_13_0" incLanes=":c2_5_0 me_0" intLanes=":c2_1_0 :c2_2_0 :c2_7_0 :c2_8_0 :c2_9_0 :c2_10_0" type="internal" x="101.22" y="-1.70" />
    <junction id=":c2_14_0" incLanes=":c2_8_0 gneE0.43_0" intLanes=":c2_0_0 :c2_1_0 :c2_4_0 :c2_5_0 :c2_10_0 :c2_11_0" type="internal" x="98.30" y="-1.22" />
    <junction id=":c2_15_0" incLanes=":c2_11_0 -gneE2.49_0" intLanes=":c2_1_0 :c2_2_0 :c2_3_0 :c2_4_0 :c2_7_0 :c2_8_0" type="internal" x="99.68" y="3.20" />

    <connection dir="s" from="-gneE0" fromLane="0" state="M" to="-gneE0.56" toLane="0" via=":c1L_2_0" />
    <connection dir="s" from="-gneE1" fromLane="0" state="M" to="-gneE1.49" toLane="0" via=":c3L_0_0" />
    <connection dir="s" from="-gneE2" fromLane="0" state="M" to="-gneE2.49" toLane="0" via=":gneJ8_0_0" />
    <connection dir="s" from="-gneE2" fromLane="0" state="M" to="-gneE2.49" toLane="1" via=":gneJ8_0_1" />
    <connection dir="r" from="-gneE2.49" fromLane="0" linkIndex="3" state="o" tl="c2" to="-gneE0" toLane="0" via=":c2_3_0" />
    <connection dir="s" from="-gneE2.49" fromLane="0" linkIndex="4" state="o" tl="c2" to="em" toLane="0" via=":c2_4_0" />
    <connection dir="l" from="-gneE2.49" fromLane="1" linkIndex="5" state="o" tl="c2" to="-gneE1" toLane="0" via=":c2_5_0" />
    <connection dir="s" from="a2b2" fromLane="0" state="M" to="a2b2.43" toLane="0" via=":a2L_1_0" />
    <connection dir="s" from="a2b2" fromLane="0" state="M" to="a2b2.43" toLane="1" via=":a2L_1_1" />
    <connection dir="r" from="a2b2.43" fromLane="0" linkIndex="9" state="o" tl="m" to="b2b3" toLane="0" via=":b2_9_0" />
    <connection dir="s" from="a2b2.43" fromLane="0" linkIndex="10" state="o" tl="m" to="me" toLane="0" via=":b2_10_0" />
    <connection dir="l" from="a2b2.43" fromLane="1" linkIndex="11" state="o" tl="m" to="b2b1" toLane="0" via=":b2_11_0" />
    <connection dir="s" from="b1b2" fromLane="0" state="M" to="b1b2.54" toLane="0" via=":b1L_0_0" />
    <connection dir="s" from="b1b2" fromLane="0" state="M" to="b1b2.54" toLane="1" via=":b1L_0_1" />
    <connection dir="r" from="b1b2.54" fromLane="0" linkIndex="0" state="O" tl="m" to="b2a2" toLane="0" via=":b2_0_0" />
    <connection dir="s" from="b1b2.54" fromLane="0" linkIndex="1" state="O" tl="m" to="b2b3" toLane="0" via=":b2_1_0" />
    <connection dir="l" from="b1b2.54" fromLane="1" linkIndex="2" state="o" tl="m" to="me" toLane="1" via=":b2_2_0" />
    <connection dir="s" from="b2a2" fromLane="0" state="M" to="b2a2.56" toLane="0" via=":a2L_0_0" />
    <connection dir="s" from="b2b1" fromLane="0" state="M" to="b2b1.45" toLane="0" via=":b1L_2_0" />
    <connection dir="s" from="b2b3" fromLane="0" state="M" to="b2b3.50" toLane="0" via=":b3L_0_0" />
    <connection dir="s" from="b3b2" fromLane="0" state="M" to="b3b2.49" toLane="0" via=":b3L_1_0" />
    <connection dir="s" from="b3b2" fromLane="0" state="M" to="b3b2.49" toLane="1" via=":b3L_1_1" />
    <connection dir="r" from="b3b2.49" fromLane="0" linkIndex="6" state="O" tl="m" to="me" toLane="0" via=":b2_6_0" />
    <connection dir="s" from="b3b2.49" fromLane="0" linkIndex="7" state="O" tl="m" to="b2b1" toLane="0" via=":b2_7_0" />
    <connection dir="l" from="b3b2.49" fromLane="1" linkIndex="8" state="o" tl="m" to="b2a2" toLane="0" via=":b2_8_0" />
    <connection dir="r" from="em" fromLane="0" linkIndex="3" state="o" tl="m" to="b2b1" toLane="0" via=":b2_3_0" />
    <connection dir="s" from="em" fromLane="0" linkIndex="4" state="o" tl="m" to="b2a2" toLane="0" via=":b2_4_0" />
    <connection dir="l" from="em" fromLane="1" linkIndex="5" state="o" tl="m" to="b2b3" toLane="0" via=":b2_5_0" />
    <connection dir="s" from="gneE0" fromLane="0" state="M" to="gneE0.43" toLane="0" via=":c1L_0_0" />
    <connection dir="s" from="gneE0" fromLane="0" state="M" to="gneE0.43" toLane="1" via=":c1L_0_1" />
    <connection dir="r" from="gneE0.43" fromLane="0" linkIndex="0" state="O" tl="c2" to="em" toLane="0" via=":c2_0_0" />
    <connection dir="s" from="gneE0.43" fromLane="0" linkIndex="1" state="O" tl="c2" to="-gneE1" toLane="0" via=":c2_1_0" />
    <connection dir="l" from="gneE0.43" fromLane="1" linkIndex="2" state="o" tl="c2" to="gneE2" toLane="0" via=":c2_2_0" />
    <connection dir="s" from="gneE1" fromLane="0" state="M" to="gneE1.50" toLane="0" via=":c3L_1_0" />
    <connection dir="s" from="gneE1" fromLane="0" state="M" to="gneE1.50" toLane="1" via=":c3L_1_1" />
    <connection dir="r" from="gneE1.50" fromLane="0" linkIndex="6" state="O" tl="c2" to="gneE2" toLane="0" via=":c2_6_0" />
    <connection dir="s" from="gneE1.50" fromLane="0" linkIndex="7" state="O" tl="c2" to="-gneE0" toLane="0" via=":c2_7_0" />
    <connection dir="l" from="gneE1.50" fromLane="1" linkIndex="8" state="o" tl="c2" to="em" toLane="1" via=":c2_8_0" />
    <connection dir="s" from="gneE2" fromLane="0" state="M" to="gneE2.50" toLane="0" via=":gneJ8_2_0" />
    <connection dir="r" from="me" fromLane="0" linkIndex="9" state="o" tl="c2" to="-gneE1" toLane="0" via=":c2_9_0" />
    <connection dir="s" from="me" fromLane="0" linkIndex="10" state="o" tl="c2" to="gneE2" toLane="0" via=":c2_10_0" />
    <connection dir="l" from="me" fromLane="1" linkIndex="11" state="o" tl="c2" to="-gneE0" toLane="0" via=":c2_11_0" />

    <connection dir="s" from=":a2L_0" fromLane="0" state="M" to="b2a2.56" toLane="0" />
    <connection dir="s" from=":a2L_1" fromLane="0" state="M" to="a2b2.43" toLane="0" />
    <connection dir="s" from=":a2L_1" fromLane="1" state="M" to="a2b2.43" toLane="1" />
    <connection dir="s" from=":b1L_0" fromLane="0" state="M" to="b1b2.54" toLane="0" />
    <connection dir="s" from=":b1L_0" fromLane="1" state="M" to="b1b2.54" toLane="1" />
    <connection dir="s" from=":b1L_2" fromLane="0" state="M" to="b2b1.45" toLane="0" />
    <connection dir="r" from=":b2_0" fromLane="0" state="M" to="b2a2" toLane="0" />
    <connection dir="s" from=":b2_1" fromLane="0" state="M" to="b2b3" toLane="0" />
    <connection dir="l" from=":b2_2" fromLane="0" state="m" to="me" toLane="1" via=":b2_12_0" />
    <connection dir="l" from=":b2_12" fromLane="0" state="M" to="me" toLane="1" />
    <connection dir="r" from=":b2_3" fromLane="0" state="M" to="b2b1" toLane="0" />
    <connection dir="s" from=":b2_4" fromLane="0" state="M" to="b2a2" toLane="0" />
    <connection dir="l" from=":b2_5" fromLane="0" state="m" to="b2b3" toLane="0" via=":b2_13_0" />
    <connection dir="l" from=":b2_13" fromLane="0" state="M" to="b2b3" toLane="0" />
    <connection dir="r" from=":b2_6" fromLane="0" state="M" to="me" toLane="0" />
    <connection dir="s" from=":b2_7" fromLane="0" state="M" to="b2b1" toLane="0" />
    <connection dir="l" from=":b2_8" fromLane="0" state="m" to="b2a2" toLane="0" via=":b2_14_0" />
    <connection dir="l" from=":b2_14" fromLane="0" state="M" to="b2a2" toLane="0" />
    <connection dir="r" from=":b2_9" fromLane="0" state="M" to="b2b3" toLane="0" />
    <connection dir="s" from=":b2_10" fromLane="0" state="M" to="me" toLane="0" />
    <connection dir="l" from=":b2_11" fromLane="0" state="m" to="b2b1" toLane="0" via=":b2_15_0" />
    <connection dir="l" from=":b2_15" fromLane="0" state="M" to="b2b1" toLane="0" />